Circuit: * C:\Users\Mischa Johal\Desktop\SPICEBot\Elec Sims\IR Bandpass Filters.asc

Direct Newton iteration for .op point succeeded.

Date: Thu Jun 23 17:35:26 2022
Total elapsed time: 0.027 seconds.

tnom = 27
temp = 27
method = trap
totiter = 3
traniter = 0
tranpoints = 0
accept = 0
rejected = 0
matrix size = 20
fillins = 0
solver = Normal
Matrix Compiler1:      39 opcodes
Matrix Compiler2: 1.26 KB object code size
